Version 4
SHEET 1 1308 704
WIRE 640 224 192 224
WIRE 800 224 640 224
WIRE 1232 224 800 224
WIRE 640 256 640 224
WIRE 192 272 192 224
WIRE 240 272 192 272
WIRE 1232 288 1232 224
WIRE 240 320 240 272
WIRE 240 320 192 320
WIRE 144 352 144 288
WIRE 144 352 112 352
WIRE 1232 384 1232 368
WIRE 112 400 112 352
WIRE 192 400 192 368
WIRE 192 400 112 400
WIRE 640 416 640 336
WIRE 640 416 528 416
WIRE 192 496 192 400
WIRE 640 496 640 416
WIRE 704 544 640 544
WIRE 528 576 528 416
WIRE 592 576 528 576
WIRE 640 608 640 592
WIRE 704 608 704 544
WIRE 704 608 640 608
WIRE 640 624 640 608
FLAG 1232 384 0
FLAG 192 576 0
FLAG 192 400 a
FLAG 640 416 b
FLAG 800 224 c
FLAG 240 272 e
FLAG 640 624 0
FLAG 704 544 d
SYMBOL nmos4 592 496 R0
SYMATTR InstName M1
SYMATTR Value n18.4
SYMATTR Value2 l={L} w={W} ad={5*W*LAMBDA} as={5*W*LAMBDA} pd={10*LAMBDA+2*W} ps={10*LAMBDA+2*W}
SYMBOL voltage 1232 272 R0
WINDOW 123 0 0 Left 0
WINDOW 39 0 0 Left 0
SYMATTR InstName Vdd
SYMATTR Value 1.8
SYMBOL current 640 256 R0
WINDOW 123 0 0 Left 0
WINDOW 39 0 0 Left 0
SYMATTR InstName I1
SYMATTR Value 50µ
SYMBOL current 192 496 R0
WINDOW 123 0 0 Left 0
WINDOW 39 0 0 Left 0
SYMATTR InstName I2
SYMATTR Value 50µ
SYMBOL pmos4 144 368 M180
SYMATTR InstName M3
SYMATTR Value p18.4
SYMATTR Value2 l={L} w={n*W} ad={5*W*LAMBDA} as={5*W*LAMBDA} pd={10*LAMBDA+2*W} ps={10*LAMBDA+2*W}
TEXT 128 72 Left 2 !.lib 'ts18sl_scl.lib' tt_18
TEXT 368 152 Left 2 !.param L = 1u W=10u n = 1 LAMBDA = 0.09u
TEXT 352 688 Left 2 !.op
