Version 4
SHEET 1 3032 1476
WIRE 432 80 432 32
WIRE 432 80 -192 80
WIRE 512 80 432 80
WIRE 1088 80 512 80
WIRE 48 352 48 320
WIRE 48 352 0 352
WIRE 512 352 512 320
WIRE 560 352 512 352
WIRE 208 368 96 368
WIRE 464 368 208 368
WIRE 0 400 0 352
WIRE 48 400 0 400
WIRE 560 400 560 352
WIRE 560 400 512 400
WIRE 48 528 48 448
WIRE 208 528 208 368
WIRE 208 528 48 528
WIRE 512 528 512 448
WIRE 512 528 288 528
WIRE 768 528 512 528
WIRE 768 544 768 528
WIRE 768 544 720 544
WIRE 784 544 768 544
WIRE 288 560 288 528
WIRE 336 560 288 560
WIRE 880 560 816 560
WIRE 720 592 720 544
WIRE 768 592 720 592
WIRE 336 608 336 560
WIRE 336 608 288 608
WIRE 48 672 48 528
WIRE 288 816 288 656
WIRE 288 816 144 816
WIRE 768 816 768 640
WIRE 864 816 768 816
WIRE 1040 816 864 816
WIRE 1120 816 1040 816
WIRE 768 848 768 816
WIRE 288 864 288 816
WIRE 768 896 672 896
WIRE 352 912 288 912
WIRE 864 928 864 816
WIRE 864 928 816 928
WIRE 144 944 144 816
WIRE 240 944 144 944
WIRE 1040 944 1040 880
WIRE 288 1024 288 960
WIRE 352 1024 352 912
WIRE 352 1024 288 1024
WIRE 496 1024 352 1024
WIRE 672 1024 672 896
WIRE 672 1024 496 1024
WIRE 768 1024 768 944
WIRE 768 1024 672 1024
WIRE 1344 1040 1344 976
WIRE 496 1136 496 1024
WIRE 1344 1152 1344 1120
WIRE 304 1184 240 1184
FLAG 48 752 0
FLAG 1120 816 out
FLAG 1040 944 0
FLAG 1344 1152 0
FLAG 1344 976 in_p
FLAG 496 1136 0
FLAG 512 80 VDD
FLAG 48 320 VDD
FLAG 512 320 VDD
FLAG 432 -48 0
FLAG 880 560 in_p
FLAG 240 576 in_p
SYMBOL nmos4 816 848 M0
SYMATTR InstName M4
SYMATTR Value n18.7
SYMATTR Value2 l=0.5u w=25u
SYMBOL voltage 432 48 R180
WINDOW 123 0 0 Left 0
WINDOW 39 0 0 Left 0
SYMATTR InstName Vdd
SYMATTR Value 1.8
SYMBOL pmos4 464 448 M180
SYMATTR InstName M10
SYMATTR Value p18.7
SYMATTR Value2 l=0.48u w=0.16u
SYMBOL pmos4 96 448 R180
SYMATTR InstName M9
SYMATTR Value p18.7
SYMATTR Value2 l=0.48u w=0.16u
SYMBOL nmos4 240 864 R0
SYMATTR InstName M3
SYMATTR Value n18.7
SYMATTR Value2 l=0.5u w=25u
SYMBOL pmos4 240 656 M180
SYMATTR InstName M1
SYMATTR Value p18.4
SYMATTR Value2 l=1u w=3u
SYMBOL pmos4 816 640 R180
SYMATTR InstName M2
SYMATTR Value p18.4
SYMATTR Value2 l=1u w=3u
SYMBOL current 48 672 R0
WINDOW 123 0 0 Left 0
WINDOW 39 0 0 Left 0
SYMATTR InstName Ibias
SYMATTR Value 8µ
SYMBOL cap 1024 816 R0
SYMATTR InstName Cl
SYMATTR Value 10p
SYMBOL voltage 1344 1024 R0
WINDOW 123 24 124 Left 2
WINDOW 39 0 0 Left 0
SYMATTR Value2 AC 1
SYMATTR InstName V1
SYMATTR Value 1.2
SYMBOL ind 400 1168 R90
WINDOW 0 5 56 VBottom 2
WINDOW 3 32 56 VTop 2
SYMATTR InstName L1
SYMATTR Value 1e17
TEXT -528 -184 Left 2 !.lib 'ts18sl_scl.lib' tt_18
TEXT -528 -272 Left 2 !.param L=1u W=5u n=1 LAMBDA=0.09u
TEXT 104 -248 Left 2 !.op
TEXT 72 -128 Left 2 !;ac dec 1000 1 100K
