Version 4
SHEET 1 2176 776
WIRE 288 -944 144 -944
WIRE 144 -896 144 -944
WIRE 288 -896 288 -944
WIRE -80 -688 -368 -688
WIRE -48 -688 -80 -688
WIRE 144 -688 144 -816
WIRE 144 -688 -48 -688
WIRE 352 -688 144 -688
WIRE 528 -688 352 -688
WIRE -48 -624 -48 -688
WIRE 352 -624 352 -688
WIRE 48 -608 0 -608
WIRE 304 -608 48 -608
WIRE -80 -576 -80 -688
WIRE -48 -576 -80 -576
WIRE -32 -576 -48 -576
WIRE 528 -576 528 -688
WIRE 528 -576 352 -576
WIRE -48 -512 -48 -528
WIRE 48 -512 48 -608
WIRE 48 -512 -48 -512
WIRE -48 -352 -48 -512
WIRE 352 -352 352 -528
WIRE 80 -336 0 -336
WIRE 176 -336 80 -336
WIRE 304 -336 176 -336
WIRE -80 -304 -80 -576
WIRE -48 -304 -80 -304
WIRE 528 -304 528 -576
WIRE 528 -304 352 -304
WIRE -48 -208 -48 -256
WIRE 80 -208 80 -336
WIRE 80 -208 -48 -208
WIRE 176 -192 176 -336
WIRE 352 -112 352 -256
WIRE 528 -112 352 -112
WIRE 576 -112 528 -112
WIRE -368 -64 -368 -688
WIRE 352 -16 352 -112
WIRE 528 -16 528 -112
WIRE -48 0 -48 -208
WIRE 160 48 -48 48
WIRE 176 48 176 -112
WIRE 176 48 160 48
WIRE 352 48 352 32
WIRE 352 48 176 48
WIRE 464 64 400 64
WIRE -96 80 -144 80
WIRE -144 112 -144 80
WIRE -144 112 -176 112
WIRE -144 144 -144 112
WIRE 464 144 464 64
WIRE 464 144 -144 144
WIRE -176 160 -176 112
WIRE 160 192 160 48
WIRE 208 192 160 192
WIRE 208 208 208 192
WIRE -176 272 -176 240
WIRE -48 304 -48 96
WIRE 352 304 352 80
WIRE 160 352 160 192
WIRE 160 352 -48 352
WIRE 352 352 160 352
WIRE -96 384 -160 384
WIRE 464 384 400 384
WIRE 144 400 -48 400
WIRE 352 400 144 400
WIRE -160 416 -160 384
WIRE -368 432 -368 16
WIRE -272 432 -368 432
WIRE 464 432 464 384
WIRE 144 464 144 400
WIRE -368 480 -368 432
WIRE 256 512 144 512
WIRE -368 528 -464 528
WIRE -272 560 -272 432
WIRE -272 560 -320 560
WIRE 96 560 96 544
WIRE 96 560 -272 560
WIRE -464 656 -464 528
WIRE -368 656 -368 576
WIRE -368 656 -464 656
WIRE -128 656 -368 656
WIRE 144 656 144 560
WIRE 144 656 -128 656
WIRE 256 656 256 512
WIRE 256 656 144 656
WIRE -128 736 -128 656
FLAG 288 -896 0
FLAG -128 736 0
FLAG 208 208 0
FLAG -176 272 0
FLAG -160 496 0
FLAG 464 512 0
FLAG 576 -112 Vout
FLAG 528 48 0
DATAFLAG 352 160 ""
DATAFLAG 352 -80 ""
DATAFLAG -48 256 ""
DATAFLAG -48 -96 ""
DATAFLAG 352 -464 ""
DATAFLAG 432 -688 ""
DATAFLAG -48 -432 ""
DATAFLAG -368 368 ""
DATAFLAG 144 432 ""
SYMBOL voltage 144 -800 R180
WINDOW 0 24 96 Left 2
WINDOW 3 24 16 Left 2
WINDOW 123 0 0 Left 0
WINDOW 39 0 0 Left 0
SYMATTR InstName V1
SYMATTR Value 1.8
SYMBOL nmos4 400 -16 M0
WINDOW 123 56 100 Left 2
SYMATTR Value2 l=0.5u w=1200u
SYMATTR InstName M11
SYMATTR Value CMOSN
SYMBOL nmos4 -96 0 R0
WINDOW 123 56 100 Left 2
SYMATTR Value2 l=0.5u w=1200u
SYMATTR InstName M12
SYMATTR Value CMOSN
SYMBOL nmos4 400 304 M0
WINDOW 123 56 100 Left 2
SYMATTR Value2 l=0.5u w=1200u
SYMATTR InstName M13
SYMATTR Value CMOSN
SYMBOL nmos4 -96 304 R0
WINDOW 123 56 100 Left 2
SYMATTR Value2 l=0.5u w=1200u
SYMATTR InstName M14
SYMATTR Value CMOSN
SYMBOL nmos4 96 464 R0
WINDOW 123 56 100 Left 2
SYMATTR Value2 l=0.5u w=20u
SYMATTR InstName M16
SYMATTR Value CMOSN
SYMBOL nmos4 -320 480 M0
WINDOW 123 56 100 Left 2
SYMATTR Value2 l=0.5 w=2u
SYMATTR InstName M1
SYMATTR Value CMOSN
SYMBOL pmos4 0 -528 R180
WINDOW 123 56 4 Left 2
SYMATTR Value2 l=1u w=1000u
SYMATTR InstName M2
SYMATTR Value CMOSP
SYMBOL pmos4 304 -528 M180
WINDOW 123 56 4 Left 2
SYMATTR Value2 l=1u w=1000u
SYMATTR InstName M3
SYMATTR Value CMOSP
SYMBOL pmos4 304 -256 M180
WINDOW 123 56 4 Left 2
SYMATTR Value2 l=1u w=1000u
SYMATTR InstName M4
SYMATTR Value CMOSP
SYMBOL pmos4 0 -256 R180
WINDOW 123 56 4 Left 2
SYMATTR Value2 l=1u w=1000u
SYMATTR InstName M5
SYMATTR Value CMOSP
SYMBOL voltage -176 144 R0
WINDOW 123 0 0 Left 0
WINDOW 39 0 0 Left 0
SYMATTR InstName V2
SYMATTR Value 1
SYMBOL voltage 176 -208 R0
WINDOW 123 0 0 Left 0
WINDOW 39 0 0 Left 0
SYMATTR InstName V3
SYMATTR Value 0.845
SYMBOL voltage 464 416 R0
WINDOW 3 24 44 Left 2
WINDOW 123 24 124 Left 2
WINDOW 39 0 0 Left 0
SYMATTR Value 0.9
SYMATTR InstName V4
SYMBOL cap 512 -16 R0
SYMATTR InstName C1
SYMATTR Value 1p
SYMBOL voltage -160 400 R0
WINDOW 123 24 124 Left 2
WINDOW 39 0 0 Left 0
WINDOW 3 24 44 Left 2
SYMATTR Value 0.9
SYMATTR InstName V5
SYMBOL current -368 -64 R0
WINDOW 123 0 0 Left 0
WINDOW 39 0 0 Left 0
SYMATTR InstName I1
SYMATTR Value 50µ
TEXT -1288 -664 Left 2 !.include TSMC_180nm.txt
TEXT -1288 760 Left 2 !.op
TEXT 1368 -880 Left 2 !;ac dec 10 1 1g
