Version 4
SHEET 1 880 680
WIRE 272 -128 192 -128
WIRE 192 -80 192 -128
WIRE 272 -80 272 -128
WIRE 464 32 112 32
WIRE 192 96 192 0
WIRE 112 112 112 32
WIRE 160 112 112 112
WIRE 464 128 464 32
WIRE 464 128 224 128
WIRE 160 144 128 144
WIRE 128 176 128 144
WIRE 192 176 192 160
WIRE 192 176 128 176
WIRE 128 192 128 176
FLAG 128 192 0
FLAG 272 -80 0
FLAG 464 -64 Adityagupta-2021702002
SYMBOL voltage 192 16 R180
WINDOW 0 24 96 Left 2
WINDOW 3 24 16 Left 2
WINDOW 123 0 0 Left 0
WINDOW 39 0 0 Left 0
SYMATTR InstName V1
SYMATTR Value 5
SYMBOL OpAmps\\UniversalOpamp2 192 128 R0
SYMATTR InstName U1
TEXT -120 296 Left 2 !.tran 0 1 1u 100u
